LAMMPS (24 Oct 2018)
#LAMMPS Input file
# Title
clear

# -----other settings -----
variable   fs   index 0.5 # 0.1 fs
variable   ps   index 100000 # 100  ps
variable   nfrequ index 100 # = Nevery * Nrepeat
variable   nstep equal 100000/0.5
variable   nstep2 equal 100000/(2*0.5)
variable   heatnpt equal 2000
variable   heatnvt equal 2000*7
variable   tdamp equal 0.5*100
variable   pdamp equal 0.5*1000
# ----- Structure settings -----
units      real
atom_style full
dimension  3
boundary   p p p
timestep   0.5

# ----- Potential settings -----
pair_style      lj/cut/coul/long 10.0 10.0
special_bonds   lj/coul 0.000000 1.00000 1.000000 angle yes dihedral no
pair_modify     mix arithmetic
bond_style      harmonic
angle_style     harmonic
box tilt large
#-----Read structure---------
read_data  58Ca_226Oh_77W_R.dat # read initial data
  triclinic box = (2.93 -0.002925 0.132973) to (16.4 12.4159 35.422) with tilt (5.32784 0 0)
  reading atoms ...
  989 atoms
  scanning bonds ...
  scanning angles ...
  reading bonds ...
  413 bonds
  reading angles ...
  77 angles
replicate  2 2 1
  triclinic box = (2.93 -0.002925 0.132973) to (29.87 24.8348 35.422) with tilt (10.6557 0 0)
  3956 atoms
  1652 bonds
  308 angles
  Time spent = 0.00341821 secs
set type 1 charge  1.3600  #CAO
  128 settings made for charge
set type 2 charge  2.0  #Caw
  232 settings made for charge
set type 3 charge  0.4250  #Ho
  132 settings made for charge
set type 4 charge  -1.050  #Ob
  176 settings made for charge
set type 5 charge  -1.1808 #Obos
  244 settings made for charge
set type 6 charge  -0.9500  #Oh
  132 settings made for charge
set type 7 charge 2.100  #st
  180 settings made for charge
set type 8 charge  0.4250  #How
  904 settings made for charge
set type 9 charge  0.410  #Hw
  616 settings made for charge
set type 10 charge  -0.9500  #Ohw
  904 settings made for charge
set type 11 charge -0.8200  #Ow
  308 settings made for charge
group water type 9 11
924 atoms in group water
group oh type 8 10
1808 atoms in group oh
group caw type 2
232 atoms in group caw
kspace_style pppm 1e-4
neighbor 3.0 bin
neigh_modify every 1 delay 5 check yes
# ----- Output setting -----
thermo_style    custom step etotal temp lx vol press density
thermo          100

# ----- Relax calculation (0 K) -----
print "----- Relax calculation (0 K) -----"
fix             f1 all box/relax iso 0.0
minimize        1.0e-10 1.0e-10 10000 1000000
PPPM initialization ...
  G vector (1/distance) = 0.291585
  grid = 20 27 24
  stencil order = 5
  estimated absolute RMS force accuracy = 0.0244919
  estimated relative force accuracy = 7.37567e-05
  3d grid and FFT values/proc = 6534 1120
  update every 1 steps, delay 0 steps, check yes
Step TotEng Temp Lx Volume Press Density
0     12607145            0        26.94    23612.882 1.4843446e+08    3.2987156
Averages over the last 51 of 101 rows, steps 5000 to 10000:
TotEng Temp Lx Volume Press Density
-181481 0 34.5315 49769.6 -199.064 1.56884
Loop time of 40.1581 on 14 procs for 10000 steps with 3956 atoms

Minimization stats:
  Stopping criterion = max iterations
  Energy initial, next-to-last, final =
  Force two-norm initial, final = 1.54918e+08 3028.8
  Force max component initial, final = 1.53349e+08 232.125
  Final line search alpha, max atom move = 5.1746e-07 0.000120116
  Iterations, force evaluations = 10000 10000

unfix           f1

# ----- reset timestep and dt -----
reset_timestep  0
timestep        0.5

# ----- Output setting -----

variable Energy equal etotal
variable pe equal pe
variable ke equal ke
variable evdwl  equal evdwl
variable ecoul  equal ecoul
variable epair equal epair
variable elong equal elong
variable etail  equal etail
variable temp equal temp
variable press equal press
variable vol equal vol
variable lx equal lx
variable ly equal ly
variable lz equal lz
variable density equal density

# ----- Check equilibriation setting -----
fix   fout2 all ave/time 1 1000 1000 v_pe v_ke v_evdwl v_ecoul v_epair v_elong v_etail v_temp v_press v_vol v_lx v_ly v_lz v_density ave  running file min.profile
fix     fout1 all ave/time 1 100 100 v_Energy v_temp v_press file out_energy.txt

velocity        all create 300.0 321456789
fix ab all shake 0.0001 20 0 b 2 a 1
compute myRDF all rdf 100 2 10  2 11  7 6 #Caw-Ohw, Caw-Ow
# ----- Equilibriation (NVT) -----
print "----- Equilibriation (NVT) start -----"
fix             f1 all nvt temp 300.0 300.0 50
run             100000
PPPM initialization ...
  G vector (1/distance) = 0.28253
  grid = 24 30 27
  stencil order = 5
  estimated absolute RMS force accuracy = 0.0291602
  estimated relative force accuracy = 8.7815e-05
  3d grid and FFT values/proc = 7502 1440
  update every 1 steps, delay 5 steps, check yes
Step TotEng Temp Lx Volume Press Density
0   -300663.74    325.33589    33.915918     47115.84    4142.8571    1.6532059
Averages over the last 501 of 1001 rows, steps 50000 to 100000:
TotEng Temp Lx Volume Press Density
-387286 299.911 33.9159 47115.8 -3573.27 1.65321
Loop time of 383.315 on 14 procs for 100000 steps with 3956 atoms

unfix           f1
write_data 300up.dat
PPPM initialization ...
  G vector (1/distance) = 0.28253
  grid = 24 30 27
  stencil order = 5
  estimated absolute RMS force accuracy = 0.0291602
  estimated relative force accuracy = 8.7815e-05
  3d grid and FFT values/proc = 7502 1440
write_restart 300up.restart
PPPM initialization ...
  G vector (1/distance) = 0.28253
  grid = 24 30 27
  stencil order = 5
  estimated absolute RMS force accuracy = 0.0291602
  estimated relative force accuracy = 8.7815e-05
  3d grid and FFT values/proc = 7502 1440
# ----- Equilibriation (NPT) -----

print "----- Equilibriation (NPT) start-----"
fix             f1 all npt temp 300.0 300.0 50 iso 1.0 1.0 500
run             200000
PPPM initialization ...
  G vector (1/distance) = 0.28253
  grid = 24 30 27
  stencil order = 5
  estimated absolute RMS force accuracy = 0.0291602
  estimated relative force accuracy = 8.7815e-05
  3d grid and FFT values/proc = 7502 1440
Step TotEng Temp Lx Volume Press Density
100000   -387283.95    296.76779    33.915918     47115.84   -2137.0689    1.6532059
Averages over the last 1001 of 2001 rows, steps 200000 to 300000:
TotEng Temp Lx Volume Press Density
-388011 300.253 32.9279 43117.1 -9.54616 1.80656
Loop time of 894.73 on 14 procs for 200000 steps with 3956 atoms

unfix           f1
#----------INICIO DE ANNEALING----------------------------
print "-------UPS RAMPS----------"
print "-------Up 300-400 NPT----------"
fix         f2 all npt temp 300.0 400.0 50 iso 1.0 1.0 500
run         2000
PPPM initialization ...
  G vector (1/distance) = 0.285134
  grid = 24 30 27
  stencil order = 5
  estimated absolute RMS force accuracy = 0.0264142
  estimated relative force accuracy = 7.95455e-05
  3d grid and FFT values/proc = 7502 1440
Step TotEng Temp Lx Volume Press Density
300000   -388218.33    296.00703    32.826719    42720.728    762.16897    1.8232878
Averages over the last 11 of 21 rows, steps 301000 to 302000:
TotEng Temp Lx Volume Press Density
-386367 370.64 33.001 43405.1 38.3598 1.79459
Loop time of 8.63398 on 14 procs for 2000 steps with 3956 atoms

unfix       f2
write_data 400up.dat
PPPM initialization ...
  G vector (1/distance) = 0.284485
  grid = 24 30 27
  stencil order = 5
  estimated absolute RMS force accuracy = 0.0270759
  estimated relative force accuracy = 8.15383e-05
  3d grid and FFT values/proc = 7502 1440
write_restart 400up.restart
PPPM initialization ...
  G vector (1/distance) = 0.284485
  grid = 24 30 27
  stencil order = 5
  estimated absolute RMS force accuracy = 0.0270759
  estimated relative force accuracy = 8.15383e-05
  3d grid and FFT values/proc = 7502 1440
print "-------Up 400-500 NPT----------"
fix         f2 all npt temp 400.0 500.0 50 iso 1.0 1.0 500
run         2000
PPPM initialization ...
  G vector (1/distance) = 0.284485
  grid = 24 30 27
  stencil order = 5
  estimated absolute RMS force accuracy = 0.0270759
  estimated relative force accuracy = 8.15383e-05
  3d grid and FFT values/proc = 7502 1440
Step TotEng Temp Lx Volume Press Density
302000   -385745.57    390.90534    33.095904    43780.323    893.02422    1.7791596
Averages over the last 11 of 21 rows, steps 303000 to 304000:
TotEng Temp Lx Volume Press Density
-383806 470.319 33.2234 44288.7 -146.761 1.75879
Loop time of 8.51206 on 14 procs for 2000 steps with 3956 atoms

unfix       f2
write_data 500up.dat
PPPM initialization ...
  G vector (1/distance) = 0.283888
  grid = 24 30 27
  stencil order = 5
  estimated absolute RMS force accuracy = 0.027697
  estimated relative force accuracy = 8.34087e-05
  3d grid and FFT values/proc = 7502 1440
write_restart 500up.restart
PPPM initialization ...
  G vector (1/distance) = 0.283888
  grid = 24 30 27
  stencil order = 5
  estimated absolute RMS force accuracy = 0.027697
  estimated relative force accuracy = 8.34087e-05
  3d grid and FFT values/proc = 7502 1440
print "-------Up 500-600 NPT----------"
fix         f2 all npt temp 500.0 600.0 50 iso 1.0 1.0 500
run         2000
PPPM initialization ...
  G vector (1/distance) = 0.283888
  grid = 24 30 27
  stencil order = 5
  estimated absolute RMS force accuracy = 0.027697
  estimated relative force accuracy = 8.34087e-05
  3d grid and FFT values/proc = 7502 1440
Step TotEng Temp Lx Volume Press Density
304000   -383143.34    488.16576    33.344568    44774.577   -2497.7066     1.739652
Averages over the last 11 of 21 rows, steps 305000 to 306000:
TotEng Temp Lx Volume Press Density
-381060 569.381 33.5621 45657.7 -378.169 1.70614
Loop time of 8.38143 on 14 procs for 2000 steps with 3956 atoms

unfix       f2
write_data 600up.dat
PPPM initialization ...
  G vector (1/distance) = 0.283178
  grid = 24 30 27
  stencil order = 5
  estimated absolute RMS force accuracy = 0.028453
  estimated relative force accuracy = 8.56852e-05
  3d grid and FFT values/proc = 7502 1440
write_restart 600up.restart
PPPM initialization ...
  G vector (1/distance) = 0.283178
  grid = 24 30 27
  stencil order = 5
  estimated absolute RMS force accuracy = 0.028453
  estimated relative force accuracy = 8.56852e-05
  3d grid and FFT values/proc = 7502 1440
print "-------Up 600-700 NPT----------"
fix         f2 all npt temp 600.0 700.0 50 iso 1.0 1.0 500
run         2000
PPPM initialization ...
  G vector (1/distance) = 0.283178
  grid = 24 30 27
  stencil order = 5
  estimated absolute RMS force accuracy = 0.028453
  estimated relative force accuracy = 8.56852e-05
  3d grid and FFT values/proc = 7502 1440
Step TotEng Temp Lx Volume Press Density
306000   -380379.12    595.24285     33.64222    45984.361    812.08648    1.6938842
Averages over the last 11 of 21 rows, steps 307000 to 308000:
TotEng Temp Lx Volume Press Density
-378134 666.898 34.0911 47850.7 110.868 1.62794
Loop time of 8.21509 on 14 procs for 2000 steps with 3956 atoms

unfix       f2
write_data 700up.dat
PPPM initialization ...
  G vector (1/distance) = 0.281762
  grid = 24 30 27
  stencil order = 5
  estimated absolute RMS force accuracy = 0.0300177
  estimated relative force accuracy = 9.03974e-05
  3d grid and FFT values/proc = 7502 1440
write_restart 700up.restart
PPPM initialization ...
  G vector (1/distance) = 0.281762
  grid = 24 30 27
  stencil order = 5
  estimated absolute RMS force accuracy = 0.0300177
  estimated relative force accuracy = 9.03974e-05
  3d grid and FFT values/proc = 7502 1440
print "-------Up 700-800 NPT----------"
fix         f2 all npt temp 700.0 800.0 50 iso 1.0 1.0 500
run         2000
PPPM initialization ...
  G vector (1/distance) = 0.281762
  grid = 24 30 27
  stencil order = 5
  estimated absolute RMS force accuracy = 0.0300177
  estimated relative force accuracy = 9.03974e-05
  3d grid and FFT values/proc = 7502 1440
Step TotEng Temp Lx Volume Press Density
308000   -377460.21    695.59028    34.241876    48487.397    808.04323    1.6064419
Averages over the last 11 of 21 rows, steps 309000 to 310000:
TotEng Temp Lx Volume Press Density
-375326 769.788 34.7859 50839.2 -255.747 1.53248
Loop time of 7.68798 on 14 procs for 2000 steps with 3956 atoms

unfix       f2
write_data 800up.dat
PPPM initialization ...
  G vector (1/distance) = 0.282365
  grid = 24 30 30
  stencil order = 5
  estimated absolute RMS force accuracy = 0.028081
  estimated relative force accuracy = 8.4565e-05
  3d grid and FFT values/proc = 8184 2160
write_restart 800up.restart
PPPM initialization ...
  G vector (1/distance) = 0.282365
  grid = 24 30 30
  stencil order = 5
  estimated absolute RMS force accuracy = 0.028081
  estimated relative force accuracy = 8.4565e-05
  3d grid and FFT values/proc = 8184 2160
print "-------Up 800-900 NPT----------"
fix         f2 all npt temp 800.0 900.0 50 iso 1.0 1.0 500
run         2000
PPPM initialization ...
  G vector (1/distance) = 0.282365
  grid = 24 30 30
  stencil order = 5
  estimated absolute RMS force accuracy = 0.028081
  estimated relative force accuracy = 8.4565e-05
  3d grid and FFT values/proc = 8184 2160
Step TotEng Temp Lx Volume Press Density
310000    -374538.2    798.59771    34.996238    51763.105    1525.6063    1.5047819
Averages over the last 11 of 21 rows, steps 311000 to 312000:
TotEng Temp Lx Volume Press Density
-372549 879.317 35.5524 54273.9 26.6176 1.43546
Loop time of 7.58055 on 14 procs for 2000 steps with 3956 atoms

unfix       f2
write_data 900up.dat
PPPM initialization ...
  G vector (1/distance) = 0.280285
  grid = 24 30 30
  stencil order = 5
  estimated absolute RMS force accuracy = 0.0303635
  estimated relative force accuracy = 9.14388e-05
  3d grid and FFT values/proc = 8184 2160
write_restart 900up.restart
PPPM initialization ...
  G vector (1/distance) = 0.280285
  grid = 24 30 30
  stencil order = 5
  estimated absolute RMS force accuracy = 0.0303635
  estimated relative force accuracy = 9.14388e-05
  3d grid and FFT values/proc = 8184 2160
print "-------Up 900-1000 NPT----------"
fix         f2 all npt temp 900.0 1000.0 50 iso 1.0 1.0 500
run         2000
PPPM initialization ...
  G vector (1/distance) = 0.280285
  grid = 24 30 30
  stencil order = 5
  estimated absolute RMS force accuracy = 0.0303635
  estimated relative force accuracy = 9.14388e-05
  3d grid and FFT values/proc = 8184 2160
Step TotEng Temp Lx Volume Press Density
312000   -371743.78    925.06554    35.914877    55947.333    428.72636    1.3922412
Averages over the last 11 of 21 rows, steps 313000 to 314000:
TotEng Temp Lx Volume Press Density
-370287 975.389 36.6369 59399.2 364.274 1.31196
Loop time of 7.31024 on 14 procs for 2000 steps with 3956 atoms

unfix       f2

print "----- Equilibriation (NVT) 1000 -----"
fix             f2 all nvt temp 1000.0 1000.0 50
run             14000
PPPM initialization ...
  G vector (1/distance) = 0.281598
  grid = 24 32 30
  stencil order = 5
  estimated absolute RMS force accuracy = 0.0269263
  estimated relative force accuracy = 8.10878e-05
  3d grid and FFT values/proc = 7843 2304
Step TotEng Temp Lx Volume Press Density
314000   -369552.73    1011.9881    37.041625    61379.919   -477.97103    1.2690174
Averages over the last 71 of 141 rows, steps 321000 to 328000:
TotEng Temp Lx Volume Press Density
-371393 999.944 37.0416 61379.9 1768.61 1.26902
Loop time of 47.1495 on 14 procs for 14000 steps with 3956 atoms

unfix           f2
write_data 1000up.dat
PPPM initialization ...
  G vector (1/distance) = 0.281598
  grid = 24 32 30
  stencil order = 5
  estimated absolute RMS force accuracy = 0.0269263
  estimated relative force accuracy = 8.10878e-05
  3d grid and FFT values/proc = 7843 2304
write_restart 1000up.restart
PPPM initialization ...
  G vector (1/distance) = 0.281598
  grid = 24 32 30
  stencil order = 5
  estimated absolute RMS force accuracy = 0.0269263
  estimated relative force accuracy = 8.10878e-05
  3d grid and FFT values/proc = 7843 2304
print "================================"
================================
print "--------Cooling-----------------"
print "================================"
================================

print "-------Down 1000K-900K NVT----------"
fix         f2 all nvt temp 1000 900 50
run         4000
PPPM initialization ...
  G vector (1/distance) = 0.281598
  grid = 24 32 30
  stencil order = 5
  estimated absolute RMS force accuracy = 0.0269263
  estimated relative force accuracy = 8.10878e-05
  3d grid and FFT values/proc = 7843 2304
Step TotEng Temp Lx Volume Press Density
328000   -371563.64    1012.5686    37.041625    61379.919    2045.0641    1.2690174
Averages over the last 21 of 41 rows, steps 330000 to 332000:
TotEng Temp Lx Volume Press Density
-373548 925.166 37.0416 61379.9 1346.86 1.26902
Loop time of 13.2346 on 14 procs for 4000 steps with 3956 atoms

unfix       f2
fix         f2 all nvt temp 900.0 900.0 50
run         4000
PPPM initialization ...
  G vector (1/distance) = 0.281598
  grid = 24 32 30
  stencil order = 5
  estimated absolute RMS force accuracy = 0.0269263
  estimated relative force accuracy = 8.10878e-05
  3d grid and FFT values/proc = 7843 2304
Step TotEng Temp Lx Volume Press Density
332000   -374234.67    879.55764    37.041625    61379.919    627.88211    1.2690174
Averages over the last 21 of 41 rows, steps 334000 to 336000:
TotEng Temp Lx Volume Press Density
-374389 902.315 37.0416 61379.9 1611.89 1.26902
Loop time of 13.4339 on 14 procs for 4000 steps with 3956 atoms

unfix       f2
write_data 900down.dat
PPPM initialization ...
  G vector (1/distance) = 0.281598
  grid = 24 32 30
  stencil order = 5
  estimated absolute RMS force accuracy = 0.0269263
  estimated relative force accuracy = 8.10878e-05
  3d grid and FFT values/proc = 7843 2304
write_restart 900down.restart
PPPM initialization ...
  G vector (1/distance) = 0.281598
  grid = 24 32 30
  stencil order = 5
  estimated absolute RMS force accuracy = 0.0269263
  estimated relative force accuracy = 8.10878e-05
  3d grid and FFT values/proc = 7843 2304
print "-------Down 900K-800K NVT----------"
fix         f2 all nvt temp 900 800 50
run         4000
PPPM initialization ...
  G vector (1/distance) = 0.281598
  grid = 24 32 30
  stencil order = 5
  estimated absolute RMS force accuracy = 0.0269263
  estimated relative force accuracy = 8.10878e-05
  3d grid and FFT values/proc = 7843 2304
Step TotEng Temp Lx Volume Press Density
336000   -374465.83    892.81621    37.041625    61379.919    2186.3751    1.2690174
Averages over the last 21 of 41 rows, steps 338000 to 340000:
TotEng Temp Lx Volume Press Density
-376209 826.657 37.0416 61379.9 943.173 1.26902
Loop time of 13.2252 on 14 procs for 4000 steps with 3956 atoms

unfix       f2
fix         f2 all nvt temp 800.0 800.0 50
run         4000
PPPM initialization ...
  G vector (1/distance) = 0.281598
  grid = 24 32 30
  stencil order = 5
  estimated absolute RMS force accuracy = 0.0269263
  estimated relative force accuracy = 8.10878e-05
  3d grid and FFT values/proc = 7843 2304
Step TotEng Temp Lx Volume Press Density
340000   -376638.07    803.14943    37.041625    61379.919    3093.8175    1.2690174
Averages over the last 21 of 41 rows, steps 342000 to 344000:
TotEng Temp Lx Volume Press Density
-376906 800.529 37.0416 61379.9 758.285 1.26902
Loop time of 12.9708 on 14 procs for 4000 steps with 3956 atoms

unfix       f2
write_data 800down.dat
PPPM initialization ...
  G vector (1/distance) = 0.281598
  grid = 24 32 30
  stencil order = 5
  estimated absolute RMS force accuracy = 0.0269263
  estimated relative force accuracy = 8.10878e-05
  3d grid and FFT values/proc = 7843 2304
write_restart 800down.restart
PPPM initialization ...
  G vector (1/distance) = 0.281598
  grid = 24 32 30
  stencil order = 5
  estimated absolute RMS force accuracy = 0.0269263
  estimated relative force accuracy = 8.10878e-05
  3d grid and FFT values/proc = 7843 2304

print "-------Down 800K-700K NVT----------"
fix         f2 all nvt temp 800 700 50
run         4000
PPPM initialization ...
  G vector (1/distance) = 0.281598
  grid = 24 32 30
  stencil order = 5
  estimated absolute RMS force accuracy = 0.0269263
  estimated relative force accuracy = 8.10878e-05
  3d grid and FFT values/proc = 7843 2304
Step TotEng Temp Lx Volume Press Density
344000    -377073.9    804.15463    37.041625    61379.919    751.91301    1.2690174
Averages over the last 21 of 41 rows, steps 346000 to 348000:
TotEng Temp Lx Volume Press Density
-378706 726.747 37.0416 61379.9 280.083 1.26902
Loop time of 13.5081 on 14 procs for 4000 steps with 3956 atoms

unfix       f2
fix         f2 all nvt temp 700.0 700.0 50
run         4000
PPPM initialization ...
  G vector (1/distance) = 0.281598
  grid = 24 32 30
  stencil order = 5
  estimated absolute RMS force accuracy = 0.0269263
  estimated relative force accuracy = 8.10878e-05
  3d grid and FFT values/proc = 7843 2304
Step TotEng Temp Lx Volume Press Density
348000   -379081.01    708.64886    37.041625    61379.919   -880.02402    1.2690174
Averages over the last 21 of 41 rows, steps 350000 to 352000:
TotEng Temp Lx Volume Press Density
-379321 700.797 37.0416 61379.9 206.091 1.26902
Loop time of 13.5165 on 14 procs for 4000 steps with 3956 atoms

unfix       f2
write_data 700down.dat
PPPM initialization ...
  G vector (1/distance) = 0.281598
  grid = 24 32 30
  stencil order = 5
  estimated absolute RMS force accuracy = 0.0269263
  estimated relative force accuracy = 8.10878e-05
  3d grid and FFT values/proc = 7843 2304
write_restart 700down.restart
PPPM initialization ...
  G vector (1/distance) = 0.281598
  grid = 24 32 30
  stencil order = 5
  estimated absolute RMS force accuracy = 0.0269263
  estimated relative force accuracy = 8.10878e-05
  3d grid and FFT values/proc = 7843 2304
print "-------Down 700K-600K NVT----------"
fix         f2 all nvt temp 700 600 50
run         4000
PPPM initialization ...
  G vector (1/distance) = 0.281598
  grid = 24 32 30
  stencil order = 5
  estimated absolute RMS force accuracy = 0.0269263
  estimated relative force accuracy = 8.10878e-05
  3d grid and FFT values/proc = 7843 2304
Step TotEng Temp Lx Volume Press Density
352000   -379291.01    710.48383    37.041625    61379.919   -326.95125    1.2690174
Averages over the last 21 of 41 rows, steps 354000 to 356000:
TotEng Temp Lx Volume Press Density
-381200 625.634 37.0416 61379.9 -166.4 1.26902
Loop time of 13.8145 on 14 procs for 4000 steps with 3956 atoms

unfix       f2
fix         f2 all nvt temp 600.0 600.0 50
run         4000
PPPM initialization ...
  G vector (1/distance) = 0.281598
  grid = 24 32 30
  stencil order = 5
  estimated absolute RMS force accuracy = 0.0269263
  estimated relative force accuracy = 8.10878e-05
  3d grid and FFT values/proc = 7843 2304
Step TotEng Temp Lx Volume Press Density
356000   -381477.66    620.80306    37.041625    61379.919     1497.768    1.2690174
Averages over the last 21 of 41 rows, steps 358000 to 360000:
TotEng Temp Lx Volume Press Density
-381806 600.3 37.0416 61379.9 -373.297 1.26902
Loop time of 14.5705 on 14 procs for 4000 steps with 3956 atoms

unfix       f2
write_data 600down.dat
PPPM initialization ...
  G vector (1/distance) = 0.281598
  grid = 24 32 30
  stencil order = 5
  estimated absolute RMS force accuracy = 0.0269263
  estimated relative force accuracy = 8.10878e-05
  3d grid and FFT values/proc = 7843 2304
write_restart 600down.restart
PPPM initialization ...
  G vector (1/distance) = 0.281598
  grid = 24 32 30
  stencil order = 5
  estimated absolute RMS force accuracy = 0.0269263
  estimated relative force accuracy = 8.10878e-05
  3d grid and FFT values/proc = 7843 2304
print "-------Down 600K-500K NVT----------"
fix         f2 all nvt temp 600 500 50
run         4000
PPPM initialization ...
  G vector (1/distance) = 0.281598
  grid = 24 32 30
  stencil order = 5
  estimated absolute RMS force accuracy = 0.0269263
  estimated relative force accuracy = 8.10878e-05
  3d grid and FFT values/proc = 7843 2304
Step TotEng Temp Lx Volume Press Density
360000    -382003.6      598.432    37.041625    61379.919    872.00993    1.2690174
Averages over the last 21 of 41 rows, steps 362000 to 364000:
TotEng Temp Lx Volume Press Density
-383647 524.514 37.0416 61379.9 -768.695 1.26902
Loop time of 14.0125 on 14 procs for 4000 steps with 3956 atoms

unfix       f2
fix         f2 all nvt temp 500.0 500.0 50
run         4000
PPPM initialization ...
  G vector (1/distance) = 0.281598
  grid = 24 32 30
  stencil order = 5
  estimated absolute RMS force accuracy = 0.0269263
  estimated relative force accuracy = 8.10878e-05
  3d grid and FFT values/proc = 7843 2304
Step TotEng Temp Lx Volume Press Density
364000   -384347.01    495.89555    37.041625    61379.919    -649.3618    1.2690174
Averages over the last 21 of 41 rows, steps 366000 to 368000:
TotEng Temp Lx Volume Press Density
-384412 498.246 37.0416 61379.9 -794.51 1.26902
Loop time of 14.407 on 14 procs for 4000 steps with 3956 atoms

unfix       f2
write_data 500down.dat
PPPM initialization ...
  G vector (1/distance) = 0.281598
  grid = 24 32 30
  stencil order = 5
  estimated absolute RMS force accuracy = 0.0269263
  estimated relative force accuracy = 8.10878e-05
  3d grid and FFT values/proc = 7843 2304
write_restart 500down.restart
PPPM initialization ...
  G vector (1/distance) = 0.281598
  grid = 24 32 30
  stencil order = 5
  estimated absolute RMS force accuracy = 0.0269263
  estimated relative force accuracy = 8.10878e-05
  3d grid and FFT values/proc = 7843 2304
print "-------Down 500K-400K NVT----------"
fix         f2 all nvt temp 500 400 50
run         4000
PPPM initialization ...
  G vector (1/distance) = 0.281598
  grid = 24 32 30
  stencil order = 5
  estimated absolute RMS force accuracy = 0.0269263
  estimated relative force accuracy = 8.10878e-05
  3d grid and FFT values/proc = 7843 2304
Step TotEng Temp Lx Volume Press Density
368000   -384474.54    498.36119    37.041625    61379.919    396.30672    1.2690174
Averages over the last 21 of 41 rows, steps 370000 to 372000:
TotEng Temp Lx Volume Press Density
-386260 425.941 37.0416 61379.9 -1140.7 1.26902
Loop time of 15.0149 on 14 procs for 4000 steps with 3956 atoms

unfix       f2
fix         f2 all nvt temp 400.0 400.0 50
run         4000
PPPM initialization ...
  G vector (1/distance) = 0.281598
  grid = 24 32 30
  stencil order = 5
  estimated absolute RMS force accuracy = 0.0269263
  estimated relative force accuracy = 8.10878e-05
  3d grid and FFT values/proc = 7843 2304
Step TotEng Temp Lx Volume Press Density
372000   -386990.02    403.55162    37.041625    61379.919    -3242.482    1.2690174
Averages over the last 21 of 41 rows, steps 374000 to 376000:
TotEng Temp Lx Volume Press Density
-387260 398.333 37.0416 61379.9 -808.933 1.26902
Loop time of 16.261 on 14 procs for 4000 steps with 3956 atoms

unfix       f2
write_data 400down.dat
PPPM initialization ...
  G vector (1/distance) = 0.281598
  grid = 24 32 30
  stencil order = 5
  estimated absolute RMS force accuracy = 0.0269263
  estimated relative force accuracy = 8.10878e-05
  3d grid and FFT values/proc = 7843 2304
write_restart 400down.restart
PPPM initialization ...
  G vector (1/distance) = 0.281598
  grid = 24 32 30
  stencil order = 5
  estimated absolute RMS force accuracy = 0.0269263
  estimated relative force accuracy = 8.10878e-05
  3d grid and FFT values/proc = 7843 2304
print "-------Down 400K-300K NVT----------"
fix         f2 all nvt temp 400 300 50
run         4000
PPPM initialization ...
  G vector (1/distance) = 0.281598
  grid = 24 32 30
  stencil order = 5
  estimated absolute RMS force accuracy = 0.0269263
  estimated relative force accuracy = 8.10878e-05
  3d grid and FFT values/proc = 7843 2304
Step TotEng Temp Lx Volume Press Density
376000   -387164.28    402.87146    37.041625    61379.919   -1803.7569    1.2690174
Averages over the last 21 of 41 rows, steps 378000 to 380000:
TotEng Temp Lx Volume Press Density
-389176 327.58 37.0416 61379.9 -1198.52 1.26902
Loop time of 16.4919 on 14 procs for 4000 steps with 3956 atoms

unfix       f2
fix         f2 all nvt temp 300.0 300.0 50
run         4000
PPPM initialization ...
  G vector (1/distance) = 0.281598
  grid = 24 32 30
  stencil order = 5
  estimated absolute RMS force accuracy = 0.0269263
  estimated relative force accuracy = 8.10878e-05
  3d grid and FFT values/proc = 7843 2304
Step TotEng Temp Lx Volume Press Density
380000      -389876    298.53929    37.041625    61379.919   -2370.4861    1.2690174
Averages over the last 21 of 41 rows, steps 382000 to 384000:
TotEng Temp Lx Volume Press Density
-390064 300.263 37.0416 61379.9 -1240.68 1.26902
Loop time of 17.0937 on 14 procs for 4000 steps with 3956 atoms

unfix       f2

# ----- Equilibriation (NVT) -----
print "----- Equilibriation (NVT) end -----"
fix             f1 all nvt temp 300.0 300.0 50
run             1000000
PPPM initialization ...
  G vector (1/distance) = 0.281598
  grid = 24 32 30
  stencil order = 5
  estimated absolute RMS force accuracy = 0.0269263
  estimated relative force accuracy = 8.10878e-05
  3d grid and FFT values/proc = 7843 2304
Step TotEng Temp Lx Volume Press Density
384000   -390099.92    301.29927    37.041625    61379.919    311.51965    1.2690174
Averages over the last 5001 of 10001 rows, steps 884000 to 1384000:
TotEng Temp Lx Volume Press Density
-390755 300.088 37.0416 61379.9 -538.501 1.26902
Loop time of 5031.77 on 14 procs for 1000000 steps with 3956 atoms

unfix           f1
# ----- Equilibriation (NPT) -----
print "----- Equilibriation (NPT) end -----"
fix             f1 all ave/time 100 1 100 c_myRDF[*] file space-rdf.rdf mode vector
fix             f2 all npt temp 300.0 300.0 50 iso 1.0 1.0 500
run             2000000
PPPM initialization ...
  G vector (1/distance) = 0.281598
  grid = 24 32 30
  stencil order = 5
  estimated absolute RMS force accuracy = 0.0269263
  estimated relative force accuracy = 8.10878e-05
  3d grid and FFT values/proc = 7843 2304
Step TotEng Temp Lx Volume Press Density
1384000   -390849.56    296.15158    37.041625    61379.919   -1259.8832    1.2690174
Averages over the last 4975 of 9950 rows, steps 1881500 to 2378900:
TotEng Temp Lx Volume Press Density
-390858 299.99 36.2037 57311.2 -0.498728 1.35933
